/*--------------------------------*- C++ -*----------------------------------*\
  =========                 |
  \\      /  F ield         | OpenFOAM: The Open Source CFD Toolbox
   \\    /   O peration     | Website:  https://openfoam.org
    \\  /    A nd           | Version:  dev
     \\/     M anipulation  |
\*---------------------------------------------------------------------------*/
FoamFile
{
    version     2.0;
    format      ascii;
    class       dictionary;
    location    "system";
    object      fvSchemes;
}
// * * * * * * * * * * * * * * * * * * * * * * * * * * * * * * * * * * * * * //

ddtSchemes
{
    default         Euler;
}
offCentre 1; //  offCentre = 1 for fully implicit for Co > CoLimit
CoLimit  6.0*0.5; //6*0.5; // Courant number Limit for explicit advection scheme theoretically should be 6 openfoam not implementing correctly

gradSchemes
{
    default         Gauss linear;
}

divSchemes
{
    default         none;
    explicit        Gauss vanLeer;
    implicit        Gauss upwind;
    upwind          Gauss upwind; // why have both the same Big, Small should tell diff
}

laplacianSchemes
{
    default         none;
}

interpolationSchemes
{
    default         none;
}

snGradSchemes
{
    default         none;
}


// ************************************************************************* //
